New England/MatPower Cases/Medium/Winter68Tight.m
% Case saved by PowerWorld Simulator, version 19, build date July 14, 2016
function mpc = Winter68_4
mpc.version = '2';
mpc.baseMVA =  100.00;

%% bus data 
mpc.bus = [
      1 2      0.00     0.00      0.00     0.00    1 1.0200000    10.90450  345.00   1   1.060   1.000    27.66     0.00 0  0
      2 1    105.78    32.57      0.00     0.00    1 1.0138215   -12.11140  345.00   1   1.040   0.950    27.66    -0.01 0  0
      3 2      0.00     0.00      0.00     0.00    1 1.0200000     2.79407  138.00   1   1.060   1.000    26.43     0.00 0  0
      4 1     81.15    24.18      0.00     0.00    1 0.9757109   -12.38957  138.00   1   1.040   0.950    27.62    -0.00 0  0
      5 1     99.34    32.75      0.00     0.00    1 0.9899560    -9.59327  230.00   1   1.040   0.950    27.61    -0.00 0  0
      6 1     91.74    27.54      0.00     0.00    1 1.0071204    -6.34161  138.00   1   1.040   0.950    27.59     0.00 0  0
      7 2    155.57    49.97      0.00     0.00    1 1.0200000    -2.25175  138.00   1   1.060   1.000    27.61     0.00 0  0
      8 2    120.69    37.93      0.00     0.00    1 1.0200000    -5.71914  230.00   1   1.060   1.000    27.61     0.00 0  0
      9 1      0.00     0.00      0.00     0.00    1 1.0284435    -6.22589  345.00   1   1.040   0.950    27.61    -0.00 0  0
     10 3     91.81    31.09      0.00     0.00    1 1.0200000     0.00000  138.00   1   1.060   1.000    27.60     0.00 0  0
     11 1      0.00     0.00      0.00     0.00    1 1.0170045    -0.86509  138.00   1   1.040   0.950    27.60    -0.00 0  0
     12 1      2.74     0.83      0.00     0.00    1 1.0168663    -1.42358  138.00   1   1.040   0.950    27.60     0.00 0  0
     13 1      0.00     0.00      0.00     0.00    1 1.0179840    -2.78248  345.00   1   1.040   0.950    27.60     0.00 0  0
     14 1    117.84    34.01      0.00     0.00    1 1.0149986    -8.23841  230.00   1   1.040   0.950    27.60    -0.00 0  0
     15 1    139.98    41.77      0.00     0.00    1 1.0035880   -11.51159  230.00   1   1.040   0.950    27.59     0.00 0  0
     16 1    154.69    44.92      0.00     0.00    1 1.0048062   -16.74708  138.00   1   1.040   0.950    27.56     0.00 0  0
     17 1     87.45    29.46      0.00     0.00    1 0.9768884   -18.46004  138.00   1   1.040   0.950    27.41     0.04 0  0
     18 1     98.54    29.23      0.00     0.00    1 0.9711420   -11.41309  138.00   1   1.040   0.950    26.89     0.17 0  0
     19 1    101.91    33.62      0.00     0.00    1 0.9854346   -16.75088  138.00   1   1.040   0.950    27.59     0.00 0  0
     20 1    100.83    31.07      0.00     0.00    1 0.9994357   -15.48687   69.00   1   1.040   0.950    27.59     0.00 0  0
     21 1    138.53    38.63      0.00     0.00    1 0.9742344   -21.42925  138.00   1   1.040   0.950    27.59     0.00 0  0
     22 1    126.60    35.95      0.00     0.00    1 0.9946218    -8.58652  230.00   1   1.040   0.950    27.59     0.00 0  0
     23 1     96.75    30.45      0.00     0.00    1 1.0005913    -8.52655  230.00   1   1.040   0.950    27.59     0.00 0  0
     24 2    117.30    37.78      0.00     0.00    1 1.0200000   -11.15746  230.00   1   1.060   1.000    27.59     0.00 0  0
     25 1     73.10    24.59      0.00     0.00    1 1.0009553   -17.62395  230.00   1   1.040   0.950    27.63    -0.00 0  0
     26 2     89.28    24.24      0.00     0.00    1 1.0200000   -27.41324  345.00   1   1.060   1.000    27.63     0.00 0  0
     27 1     96.68    32.76      0.00     0.00    1 0.9833834   -26.55464  230.00   1   1.040   0.950    27.60     0.02 0  0
     28 2    133.72    38.69      0.00     0.00    1 1.0200000   -19.11230  138.00   1   1.060   1.000    27.67     0.00 0  0
     29 1     84.84    30.60      0.00     0.00    1 1.0144484   -21.38718  138.00   1   1.040   0.950    27.67    -0.00 0  0
     30 2      0.00     0.00      0.00     0.00    1 1.0200000   -10.58086   14.00   1   1.060   1.000    27.66     0.00 0  0
     31 2      0.00     0.00      0.00     0.00    1 1.0200000    -2.97923   14.00   1   1.060   1.000    27.59     0.00 0  0
     32 2      0.00     0.00      0.00     0.00    1 1.0200000     1.79561   14.00   1   1.060   1.000    27.60     0.00 0  0
     33 2    127.80    30.72      0.00     0.00    1 1.0200000   -12.50309   14.00   1   1.060   1.000    27.59     0.00 0  0
     34 2     83.58    26.65      0.00     0.00    1 1.0200000   -13.40304   14.00   1   1.060   1.000    27.59     0.00 0  0
     35 2      0.00     0.00      0.00     0.00    1 1.0200000    -1.10297   14.00   1   1.060   1.000    27.59     0.00 0  0
     36 2      0.00     0.00      0.00     0.00    1 1.0200000    -3.66916   14.00   1   1.060   1.000    27.59     0.00 0  0
     37 2      0.00     0.00      0.00     0.00    1 1.0200000   -16.34958   14.00   1   1.060   1.000    27.63     0.00 0  0
     38 2      0.00     0.00      0.00     0.00    1 1.0200000   -19.60295   14.00   1   1.060   1.000    27.67     0.00 0  0
     39 1     85.11    28.52      0.00     0.00    1 1.0055146   -22.43712  345.00   1   1.040   0.950    27.64    -0.01 0  0
     40 1     85.32    26.27      0.00     0.00    1 1.0065640   -28.38918  345.00   1   1.040   0.950    27.63    -0.00 0  0
     41 1    109.10    31.13      0.00     0.00    1 0.9891288   -25.73035  345.00   1   1.040   0.950    27.58     0.02 0  0
     42 1    120.42    31.57      0.00     0.00    1 1.0199694   -30.27198  345.00   1   1.040   0.950    27.64    -0.00 0  0
     43 1    112.89    38.69      0.00     0.00    1 1.0130687   -27.30861  345.00   1   1.040   0.950    27.63    -0.00 0  0
     44 1     86.26    30.40      0.00     0.00    1 1.0100987    -6.85540  230.00   1   1.040   0.950    27.61    -0.00 0  0
     45 1    121.02    34.17      0.00     0.00    1 1.0148994    -5.71626  345.00   1   1.040   0.950    27.62    -0.00 0  0
     46 1    108.54    36.42      0.00     0.00    1 0.9668689   -12.92221  138.00   1   1.040   0.950    27.61    -0.00 0  0
     47 1     99.27    34.81      0.00    20.00    1 0.9314572   -17.62804  138.00   1   1.040   0.950    27.61    -0.00 0  0
     48 1    117.50    38.68      0.00     0.00    1 0.9718245   -12.75190  345.00   1   1.040   0.950    27.62    -0.00 0  0
     49 2     79.00    30.18      0.00     0.00    1 1.0200000    -3.42988  138.00   1   1.060   1.000    27.61     0.00 0  0
     50 1    112.83    39.05      0.00     0.00    1 0.9790700    -9.24166  138.00   1   1.040   0.950    27.62    -0.00 0  0
     51 1     99.52    32.33      0.00     0.00    1 0.9957228   -10.99191  138.00   1   1.040   0.950    27.61    -0.00 0  0
     52 2    124.23    34.70      0.00     0.00    1 1.0200000    -4.85574  345.00   1   1.060   1.000    27.62     0.00 0  0
     53 1    177.17    57.14      0.00     0.00    1 0.9803921   -11.60419  138.00   1   1.040   0.950    27.61    -0.00 0  0
     54 2     87.82    35.43      0.00     0.00    1 1.0200000    -5.19181  230.00   1   1.060   1.000    27.61     0.00 0  0
     55 1    118.56    41.26      0.00     0.00    1 1.0069772    -7.50835  230.00   1   1.040   0.950    27.61    -0.00 0  0
     56 2    127.03    38.65      0.00     0.00    1 1.0200000    -7.13394  345.00   1   1.060   1.000    27.59     0.00 0  0
     57 1     75.26    28.03      0.00     0.00    1 0.9513635   -15.01677  138.00   1   1.040   0.950    27.61    -0.00 0  0
     58 1    150.35    41.29      0.00     0.00    1 0.9995313    -8.60288  345.00   1   1.040   0.950    27.59     0.00 0  0
     59 1     96.36    31.77      0.00     0.00    1 1.0107851   -10.78679  345.00   1   1.040   0.950    27.58     0.00 0  0
     60 1    107.56    37.39      0.00     0.00    1 0.9444554   -15.55310  138.00   1   1.040   0.950    27.61     0.00 0  0
     61 1    126.75    36.04      0.00     0.00    1 1.0088376   -13.41244  230.00   1   1.040   0.950    27.58     0.00 0  0
     62 1    117.01    33.09      0.00     0.00    1 0.9928773    -9.57329  345.00   1   1.040   0.950    27.59     0.00 0  0
     63 1     93.06    35.22      0.00     0.00    1 0.9415018   -16.00965  138.00   1   1.040   0.950    27.61    -0.00 0  0
     64 1    189.92    60.08      0.00     0.00    1 0.9642900   -13.05887  138.00   1   1.040   0.950    27.60     0.00 0  0
     65 1     81.70    30.66      0.00     0.00    1 0.9935318    -7.18297  138.00   1   1.040   0.950    27.62    -0.00 0  0
     66 1     94.05    36.08      0.00     0.00    1 1.0026682    -8.17272  345.00   1   1.040   0.950    27.60     0.00 0  0
     67 1    106.96    30.79      0.00     0.00    1 0.9782700   -11.88886  138.00   1   1.040   0.950    27.61    -0.00 0  0
     68 1    127.76    39.84      0.00     0.00    1 0.9900542   -10.26314  138.00   1   1.040   0.950    27.61    -0.00 0  0
     69 2     76.17    27.85      0.00     0.00    1 1.0200000    -2.12607  345.00   1   1.060   1.000    27.60     0.00 0  0
     70 1    101.74    32.67      0.00     0.00    1 1.0010282    -4.80906  138.00   1   1.040   0.950    27.59     0.00 0  0
     71 1     82.84    28.46      0.00     0.00    1 1.0091809    -7.34946  345.00   1   1.040   0.950    27.60    -0.00 0  0
     72 2     74.28    27.23      0.00     0.00    1 0.9998565   -10.73102  138.00   1   1.060   1.000    27.61    -0.00 0  0
     73 1     86.62    28.57      0.00     0.00    1 0.9962307   -11.03797  138.00   1   1.040   0.950    27.61    -0.00 0  0
     74 1     95.18    32.72      0.00     0.00    1 0.9905862    -9.67452  345.00   1   1.040   0.950    27.62    -0.00 0  0
     75 1     99.72    33.32      0.00     0.00    1 0.9650950   -13.09677  138.00   1   1.040   0.950    27.62    -0.00 0  0
     76 2    125.12    30.41      0.00     0.00    1 1.0200000    -6.00462  345.00   1   1.060   1.000    27.60     0.00 0  0
     77 1     85.26    24.62      0.00     0.00    1 0.9870548   -25.79065  138.00   1   1.040   0.950    27.67     0.00 0  0
     78 2    103.58    29.52      0.00     0.00    1 1.0200000   -30.39376  345.00   1   1.060   1.000    27.65     0.00 0  0
     79 1    135.00    45.41      0.00     0.00    1 1.0371085   -33.48788  345.00   1   1.040   0.950    27.66    -0.00 0  0
     80 2    109.52    32.63      0.00     0.00    1 1.0200000   -23.07603  345.00   1   1.060   1.000    27.66     0.00 0  0
     81 1    117.51    32.34      0.00     0.00    1 1.0181682   -24.82031  345.00   1   1.040   0.950    27.66    -0.00 0  0
     82 2     84.65    25.18      0.00     0.00    1 1.0200000   -23.47417  345.00   1   1.060   1.000    27.67     0.00 0  0
     83 1     88.85    30.45      0.00     0.00    1 1.0199862   -24.85773  345.00   1   1.040   0.950    27.67    -0.00 0  0
     84 2     69.86    25.72      0.00     0.00    1 1.0200000   -23.53492  138.00   1   1.060   1.000    27.67     0.00 0  0
     85 1     76.48    28.81      0.00     0.00    1 0.9854935   -25.87952  230.00   1   1.040   0.950    27.69    -0.00 0  0
     86 1    112.68    33.79      0.00     0.00    1 0.9838513   -24.16002  138.00   1   1.040   0.950    27.69     0.00 0  0
     87 1    126.86    33.23      0.00     0.00    1 1.0431777   -31.25622  345.00   1   1.040   0.950    27.66    -0.00 0  0
     88 1    103.24    34.77      0.00     0.00    1 1.0111581   -20.70491  138.00   1   1.040   0.950    27.68     0.00 0  0
     89 1     82.95    30.56      0.00     0.00    1 0.9382118   -30.61737  138.00   1   1.040   0.950    27.68     0.00 0  0
     90 1     83.28    29.70      0.00     0.00    1 0.9889154    -9.39714  230.00   1   1.040   0.950    27.59     0.00 0  0
     91 1     96.26    25.48      0.00     0.00    1 0.9749819   -11.44555  230.00   1   1.040   0.950    27.59     0.00 0  0
     92 1     90.89    30.10      0.00     0.00    1 0.9789739   -12.98012  345.00   1   1.040   0.950    27.59     0.00 0  0
     93 1    102.56    29.65      0.00     0.00    1 0.9826201   -13.33313  345.00   1   1.040   0.950    27.59     0.00 0  0
     94 1    122.84    37.18      0.00     0.00    1 0.9929041   -12.50283  138.00   1   1.040   0.950    27.59     0.00 0  0
     95 1    113.83    30.56      0.00     0.00    1 0.9725952   -15.48276  138.00   1   1.040   0.950    27.59     0.00 0  0
     96 1    126.68    37.98      0.00     0.00    1 0.9720985   -16.38871  138.00   1   1.040   0.950    27.59     0.00 0  0
     97 1    124.84    32.48      0.00     0.00    1 0.9906174   -14.07798  345.00   1   1.040   0.950    27.59     0.00 0  0
     98 1    131.53    32.70      0.00     0.00    1 1.0112037   -14.52616  345.00   1   1.040   0.950    27.60     0.00 0  0
     99 1    124.98    34.25      0.00     0.00    1 0.9811594   -15.26273  345.00   1   1.040   0.950    27.59     0.00 0  0
    100 1    102.22    29.88      0.00     0.00    1 0.9768069   -12.06949  138.00   1   1.040   0.950    27.59     0.00 0  0
    101 1     96.35    32.05      0.00     0.00    1 0.9791181   -13.76998  345.00   1   1.040   0.950    27.59     0.00 0  0
    102 1     68.57    26.29      0.00     0.00    1 0.9786557   -15.29935  138.00   1   1.040   0.950    27.59     0.00 0  0
    103 2    145.75    49.50      0.00     0.00    1 1.0200000    -6.58446  138.00   1   1.060   1.000    27.59     0.00 0  0
    104 1    107.50    32.73      0.00     0.00    1 0.9601114   -19.37311  138.00   1   1.040   0.950    27.59     0.00 0  0
    105 1     83.83    23.66      0.00     0.00    1 0.9739448   -18.03936  138.00   1   1.040   0.950    27.59     0.00 0  0
    106 1     84.99    28.72      0.00     0.00    1 0.9625540   -21.26207  138.00   1   1.040   0.950    27.59     0.00 0  0
    107 1     95.89    24.96      0.00     0.00    1 0.9656385   -20.67469  138.00   1   1.040   0.950    27.59     0.00 0  0
    108 1    147.57    42.16      0.00     0.00    1 0.9634519   -20.33177  230.00   1   1.040   0.950    27.59     0.00 0  0
    109 1    117.30    38.80      0.00     0.00    1 0.9638215   -22.58070  138.00   1   1.040   0.950    27.59     0.00 0  0
    110 1     68.80    21.82      0.00     0.00    1 0.9765015   -17.65692  138.00   1   1.040   0.950    27.59     0.00 0  0
    111 1    111.95    36.81      0.00     0.00    1 0.9781876   -18.14965  345.00   1   1.040   0.950    27.59     0.00 0  0
    112 1    145.36    39.10      0.00     0.00    1 0.9460504   -23.18905  138.00   1   1.040   0.950    27.60     0.00 0  0
    113 1     68.06    22.27      0.00     0.00    1 0.9327786   -24.48298  138.00   1   1.040   0.950    27.60     0.00 0  0
    114 1     70.35    27.46      0.00     0.00    1 0.9696297   -16.79074  138.00   1   1.040   0.950    27.59     0.00 0  0
    115 1     77.60    25.69      0.00     0.00    1 0.9832264   -12.42819  345.00   1   1.040   0.950    27.59     0.00 0  0
    116 1    130.80    34.22      0.00     0.00    1 0.9904989   -20.62313  230.00   1   1.040   0.950    27.60     0.00 0  0
    117 1    103.76    31.21      0.00     0.00    1 0.9795082   -19.86367  138.00   1   1.040   0.950    27.56    -0.00 0  0
    118 1     69.34    25.88      0.00     0.00    1 0.9720348   -19.18970  138.00   1   1.040   0.950    27.59     0.00 0  0
    119 1    125.52    37.26      0.00     0.00    1 0.9674689   -20.18334  138.00   1   1.040   0.950    27.59     0.00 0  0
    120 2     83.73    27.96      0.00     0.00    1 1.0001205   -20.44746  230.00   1   1.060   1.000    27.60     0.00 0  0
    121 1     98.03    31.03      0.00     0.00    1 0.9943563   -21.00782  230.00   1   1.040   0.950    27.60     0.00 0  0
    122 1     83.31    26.56      0.00     0.00    1 0.9623953   -22.22388  138.00   1   1.040   0.950    27.57    -0.00 0  0
    123 1    115.59    32.54      0.00     0.00    1 0.9947254   -19.79706  230.00   1   1.040   0.950    27.60     0.00 0  0
    124 1    117.83    33.02      0.00     0.00    1 0.9586912   -22.52918  230.00   1   1.040   0.950    27.61     0.00 0  0
    125 1    122.10    34.56      0.00     0.00    1 0.9645274   -21.60157  138.00   1   1.040   0.950    27.60    -0.00 0  0
    126 1    104.04    27.63      0.00     0.00    1 0.9696009   -22.43736  230.00   1   1.040   0.950    27.61     0.01 0  0
    127 1    118.52    31.70      0.00     0.00    1 0.9670141   -22.45161  230.00   1   1.040   0.950    27.62     0.01 0  0
    128 2    127.45    37.78      0.00     0.00    1 1.0200000   -19.31168  138.00   1   1.060   1.000    27.53     0.00 0  0
    129 1    100.95    34.05      0.00     0.00    1 0.9567103   -22.72474  138.00   1   1.040   0.950    27.59     0.00 0  0
    130 2    106.38    34.73      0.00     0.00    1 1.0200000   -20.63583  138.00   1   1.060   1.000    27.56     0.00 0  0
    131 1    138.02    36.65      0.00     0.00    1 0.9500854   -23.03118  138.00   1   1.040   0.950    27.60    -0.00 0  0
    132 1    129.92    32.71      0.00     0.00    1 0.9760006   -19.17275  230.00   1   1.040   0.950    27.61     0.00 0  0
    133 1     88.72    26.14      0.00     0.00    1 0.9786339   -19.57075  230.00   1   1.040   0.950    27.62    -0.00 0  0
    134 1    102.89    28.06      0.00     0.00    1 0.9697802   -19.77692  230.00   1   1.040   0.950    27.61     0.00 0  0
    135 1     80.68    26.34      0.00     0.00    1 0.9983029   -17.33556  345.00   1   1.040   0.950    27.60     0.00 0  0
    136 1     95.99    28.47      0.00     0.00    1 0.9643837   -18.76415  138.00   1   1.040   0.950    27.59     0.00 0  0
    137 1     80.06    24.71      0.00     0.00    1 1.0086503   -16.38357  345.00   1   1.040   0.950    27.60     0.00 0  0
    138 1    124.54    34.88      0.00     0.00    1 0.9784204   -16.52635  345.00   1   1.040   0.950    27.59     0.00 0  0
    139 1    110.68    31.17      0.00     0.00    1 1.0050393   -13.51489  345.00   1   1.040   0.950    27.66    -0.01 0  0
    140 1    138.52    32.29      0.00     0.00    1 0.9898439   -10.35238  138.00   1   1.040   0.950    27.59     0.00 0  0
    141 2    127.48    37.15      0.00     0.00    1 1.0200000    -6.73080  345.00   1   1.060   1.000    27.59     0.00 0  0
    142 1     90.04    29.29      0.00     0.00    1 0.9627572   -21.77826  230.00   1   1.040   0.950    27.61     0.00 0  0
    143 2    122.08    37.50      0.00     0.00    1 1.0200000   -14.48869  230.00   1   1.060   1.000    27.58     0.00 0  0
    144 1    141.36    36.57      0.00     0.00    1 1.0105380   -15.89334  230.00   1   1.040   0.950    27.58    -0.00 0  0
    145 1    113.69    35.12      0.00     0.00    1 0.9817563   -20.44437  138.00   1   1.040   0.950    27.49     0.01 0  0
    146 2    122.12    31.09      0.00     0.00    1 1.0150633   -15.60234  345.00   1   1.060   1.000    27.60     0.00 0  0
    147 1     84.08    27.95      0.00     0.00    1 0.9615505   -20.80474  138.00   1   1.040   0.950    27.59     0.00 0  0
    148 1     93.17    30.13      0.00     0.00    1 0.9833580   -13.01642  345.00   1   1.040   0.950    27.59     0.00 0  0
    149 2    146.62    40.78      0.00     0.00    1 1.0200000   -17.65318  138.00   1   1.060   1.000    27.54     0.00 0  0
    150 1    109.29    33.57      0.00     0.00    1 0.9614381   -14.33874  345.00   1   1.040   0.950    27.62    -0.00 0  0
    151 1     95.13    32.91      0.00     0.00    1 1.0105673   -16.13687  345.00   1   1.040   0.950    27.60     0.00 0  0
    152 1     79.43    28.57      0.00     0.00    1 0.9415653   -23.44705  138.00   1   1.040   0.950    27.60     0.00 0  0
    153 1     90.92    33.95      0.00     0.00    1 0.9935190   -17.75764  345.00   1   1.040   0.950    27.60     0.00 0  0
    154 1    108.70    35.36      0.00     0.00    1 0.9760982   -25.09372  230.00   1   1.040   0.950    27.70    -0.01 0  0
    155 1     99.85    32.39      0.00     0.00    1 0.9611878   -26.41214  138.00   1   1.040   0.950    27.73    -0.00 0  0
    156 1    102.89    31.67      0.00     0.00    1 1.0035161   -19.86202  345.00   1   1.040   0.950    27.66     0.00 0  0
    157 2    101.88    33.05      0.00     0.00    1 1.0200000   -16.76653  138.00   1   1.060   1.000    27.97     0.00 0  0
    158 1    101.58    31.53      0.00     0.00    1 0.9828844   -15.63704  138.00   1   1.040   0.950    27.25    -0.00 0  0
    159 1    104.24    30.08      0.00     0.00    1 0.9975816   -22.38878  345.00   1   1.040   0.950    27.56     0.02 0  0
    160 1    127.10    38.41      0.00     0.00    1 0.9602982   -27.90570  230.00   1   1.040   0.950    27.65    -0.00 0  0
    161 1     71.67    24.76      0.00     0.00    1 0.9822524   -17.28805  138.00   1   1.040   0.950    27.36     0.02 0  0
    162 2     98.15    30.63      0.00     0.00    1 1.0200000   -15.10123  345.00   1   1.060   1.000    27.59     0.00 0  0
    163 1    118.86    31.12      0.00     0.00    1 1.0007305   -19.16520  230.00   1   1.040   0.950    27.64     0.02 0  0
    164 1     95.43    31.22      0.00     0.00    1 0.9777726   -18.09857  138.00   1   1.040   0.950    27.41     0.03 0  0
    165 2    100.31    31.95      0.00     0.00    1 1.0200000   -13.98723  230.00   1   1.060   1.000    27.60     0.00 0  0
    166 2     93.35    27.35      0.00     0.00    1 1.0200000   -11.06163  138.00   1   1.060   1.000    27.26     0.00 0  0
    167 1     93.25    31.38      0.00     0.00    1 1.0237411   -29.80225  345.00   1   1.040   0.950    27.65    -0.00 0  0
    168 1     64.92    23.04      0.00     0.00    1 0.9795077   -19.13358  230.00   1   1.040   0.950    27.63    -0.00 0  0
    169 1     95.83    27.89      0.00     0.00    1 0.9890606   -21.98880  138.00   1   1.040   0.950    27.73    -0.00 0  0
    170 1    109.24    29.95      0.00     0.00    1 0.9480062   -13.16378  138.00   1   1.040   0.950    27.59    -0.00 0  0
    171 1     96.65    29.49      0.00     0.00    1 0.9552696   -13.22739  138.00   1   1.040   0.950    27.59    -0.00 0  0
    172 1    109.90    34.69      0.00     0.00    1 0.9737198    -8.20323  138.00   1   1.040   0.950    27.60    -0.00 0  0
    173 1     99.21    33.32      0.00     0.00    1 0.9690917    -8.02571  138.00   1   1.040   0.950    27.60    -0.00 0  0
    174 1    116.95    34.88      0.00     0.00    1 1.0099522   -10.10715  345.00   1   1.040   0.950    27.59    -0.00 0  0
    175 2     94.57    32.31      0.00     0.00    1 1.0200000    -7.61608  138.00   1   1.060   1.000    27.59     0.00 0  0
    176 2    114.95    35.34      0.00     0.00    1 1.0200000   -15.89464  345.00   1   1.060   1.000    27.60     0.00 0  0
    177 1    159.11    50.58      0.00     0.00    1 1.0089279   -12.03227  230.00   1   1.040   0.950    27.59     0.00 0  0
    178 1     87.35    26.15      0.00     0.00    1 0.9888291   -14.98403  138.00   1   1.040   0.950    27.59     0.00 0  0
    179 1      8.04     2.59      0.00     0.00    1 0.9877762   -15.05583  138.00   1   1.040   0.950    27.59     0.00 0  0
    180 1     11.71     3.29      0.00     0.00    1 1.0099064   -10.16586  345.00   1   1.040   0.950    27.59    -0.00 0  0
    181 1      0.00     0.00      0.00     0.00    1 1.0240884    -3.77733  345.00   1   1.040   0.950    27.73    -0.01 0  0
    182 1      0.00     0.00      0.00     0.00    1 0.9924054    -9.64327  345.00   1   1.040   0.950    27.62    -0.00 0  0
    183 1      0.00     0.00      0.00     0.00    1 1.0046799    -7.61245  345.00   1   1.040   0.950    27.62    -0.00 0  0
    184 1      0.00     0.00      0.00     0.00    1 1.0074934    -7.79076  230.00   1   1.040   0.950    27.59     0.00 0  0
    185 1      0.00     0.00      0.00     0.00    1 1.0090424    -7.00899  345.00   1   1.040   0.950    27.59     0.00 0  0
    186 1      0.00     0.00      0.00     0.00    1 1.0068883    -6.75382  345.00   1   1.040   0.950    27.61    -0.00 0  0
    187 1      0.00     0.00      0.00     0.00    1 1.0182750    -6.14338  345.00   1   1.040   0.950    27.61    -0.00 0  0
    188 1      0.00     0.00      0.00     0.00    1 1.0182678    -2.40539  345.00   1   1.040   0.950    27.60     0.00 0  0
    189 1      0.00     0.00      0.00     0.00    1 1.0178170    -2.78053  345.00   1   1.040   0.950    27.60     0.00 0  0
    190 1      0.00     0.00      0.00     0.00    1 1.0157167    -6.45365  345.00   1   1.040   0.950    27.60    -0.00 0  0
    191 1      0.00     0.00      0.00     0.00    1 1.0149342    -9.89205  345.00   1   1.040   0.950    27.58     0.00 0  0
    192 1      0.00     0.00      0.00     0.00    1 1.0056807   -15.12589  230.00   1   1.040   0.950    27.57     0.00 0  0
    193 1      0.00     0.00      0.00     0.00    1 1.0100135   -13.87978  345.00   1   1.040   0.950    27.56     0.00 0  0
    194 1      0.00     0.00      0.00     0.00    1 1.0062673   -15.74721  345.00   1   1.040   0.950    27.54     0.01 0  0
    195 1      0.00     0.00      0.00     0.00    1 0.9729920   -18.97622  230.00   1   1.040   0.950    27.59     0.00 0  0
    196 1      0.00     0.00      0.00     0.00    1 0.9791212   -17.34536  345.00   1   1.040   0.950    27.59     0.00 0  0
    197 1      0.00     0.00      0.00     0.00    1 0.9761290   -19.28849  230.00   1   1.040   0.950    27.60     0.00 0  0
    198 1      0.00     0.00      0.00     0.00    1 0.9802223   -17.53561  345.00   1   1.040   0.950    27.59     0.00 0  0
    199 1      0.00     0.00      0.00     0.00    1 0.9885548   -11.71183  345.00   1   1.040   0.950    27.59     0.00 0  0
    200 1      0.00     0.00      0.00     0.00    1 1.0094939   -11.94982  345.00   1   1.040   0.950    27.59     0.00 0  0
...
];

%% generator data 
mpc.gen = [
      1    338.00    -46.55    103.00   -103.00  1.0200    100.00 1    338.00      3.00     81.31   9999.90   -500.00   1500.00   -500.00   1500.00 0 0 0 0   0.0000 0 0 0 0
      3    553.36     42.38    392.00   -209.00  1.0200    100.00 1    686.00    298.00      0.00      0.00      0.00      0.00      0.00      0.00 0 0 0 0   0.0000 0 0 0 0
      7    674.00    126.51    385.00   -205.00  1.0200    100.00 1    674.00    139.00      0.00      0.00      0.00      0.00      0.00      0.00 0 0 0 0   0.0000 0 0 0 0
      8    189.00    132.55    349.00   -186.00  1.0200    100.00 1    611.00    189.00      0.00      0.00      0.00      0.00      0.00      0.00 0 0 0 0   0.0000 0 0 0 0
     10   1405.57    134.30   1298.00   -692.00  1.0200    100.00 1   2271.00   1406.00      0.00      0.00      0.00      0.00      0.00      0.00 0 0 0 0   0.0000 0 0 0 0
     24    288.00    182.46    309.00   -165.00  1.0200    100.00 1    541.00    288.00      0.00      0.00      0.00      0.00      0.00      0.00 0 0 0 0   0.0000 0 0 0 0
     26    120.00     74.56    171.00    -91.00  1.0200    100.00 1    300.00    120.00      0.00      0.00      0.00      0.00      0.00      0.00 0 0 0 0   0.0000 0 0 0 0
     28    441.60     77.65    338.00   -180.00  1.0200    100.00 1    592.00    216.00      0.00      0.00      0.00      0.00      0.00      0.00 0 0 0 0   0.0000 0 0 0 0
     30    152.60     36.86    150.00    -80.00  1.0200    100.00 1    263.00    125.00      0.00      0.00      0.00      0.00      0.00      0.00 0 0 0 0   0.0000 0 0 0 0
     31    241.00     59.62    457.00   -244.00  1.0200    100.00 1    800.00    241.00      0.00      0.00      0.00      0.00      0.00      0.00 0 0 0 0   0.0000 0 0 0 0
     32    163.00      2.55    390.00   -208.00  1.0200    100.00 1    683.00    163.00      0.00      0.00      0.00      0.00      0.00      0.00 0 0 0 0   0.0000 0 0 0 0
     33    664.00    272.02    300.00   -202.00  1.0200    100.00 1    664.00    379.00      0.00      0.00      0.00      0.00      0.00      0.00 0 0 0 0   0.0000 0 0 0 0
     34    295.00    136.36    707.00   -377.00  1.0200    100.00 1   1237.00    295.00      0.00      0.00      0.00      0.00      0.00      0.00 0 0 0 0   0.0000 0 0 0 0
     35    924.00    241.44    300.00   -422.00  1.0200    100.00 1   1386.00    924.00      0.00      0.00      0.00      0.00      0.00      0.00 0 0 0 0   0.0000 0 0 0 0
     36    319.20     80.39    336.00   -179.00  1.0200    100.00 1    588.00    140.00      0.00      0.00      0.00      0.00      0.00      0.00 0 0 0 0   0.0000 0 0 0 0
     37    100.00     82.23    324.00   -173.00  1.0200    100.00 1    567.00    100.00      0.00      0.00      0.00      0.00      0.00      0.00 0 0 0 0   0.0000 0 0 0 0
     38    208.00     28.85    498.00   -266.00  1.0200    100.00 1    872.00    208.00      0.00      0.00      0.00      0.00      0.00      0.00 0 0 0 0   0.0000 0 0 0 0
     49    492.20    135.32    347.00   -185.00  1.0200    100.00 1    607.00    320.00      0.00      0.00      0.00      0.00      0.00      0.00 0 0 0 0   0.0000 0 0 0 0
     52    754.00    162.91    938.00   -500.00  1.0200    100.00 1   1642.00    162.00      0.00      0.00      0.00      0.00      0.00      0.00 0 0 0 0   0.0000 0 0 0 0
     54    275.60     23.60    312.00   -166.00  1.0200    100.00 1    546.00    208.00      0.00      0.00      0.00      0.00      0.00      0.00 0 0 0 0   0.0000 0 0 0 0
     56    728.00    200.55    416.00   -222.00  1.0200    100.00 1    728.00    416.00      0.00      0.00      0.00      0.00      0.00      0.00 0 0 0 0   0.0000 0 0 0 0
     69    445.80    106.24    297.00   -158.00  1.0200    100.00 1    520.00    149.00      0.00      0.00      0.00      0.00      0.00      0.00 0 0 0 0   0.0000 0 0 0 0
     72    263.00    150.00    150.00    -80.00  1.0200    100.00 1    263.00     85.00      0.00      0.00      0.00      0.00      0.00      0.00 0 0 0 0   0.0000 0 0 0 0
     76    882.00    194.45    504.00   -269.00  1.0200    100.00 1    882.00    435.00      0.00      0.00      0.00      0.00      0.00      0.00 0 0 0 0   0.0000 0 0 0 0
     78    130.00    -63.38    165.00    -88.00  1.0200    100.00 1    288.00    130.00      0.00      0.00      0.00      0.00      0.00      0.00 0 0 0 0   0.0000 0 0 0 0
     80    392.00    -80.06    330.00   -176.00  1.0200    100.00 1    578.00    113.00      0.00      0.00      0.00      0.00      0.00      0.00 0 0 0 0   0.0000 0 0 0 0
     82    176.00    -32.34    179.00    -95.00  1.0200    100.00 1    313.00    176.00      0.00      0.00      0.00      0.00      0.00      0.00 0 0 0 0   0.0000 0 0 0 0
     84    169.00     65.55    508.00   -271.00  1.0200    100.00 1    888.00    169.00      0.00      0.00      0.00      0.00      0.00      0.00 0 0 0 0   0.0000 0 0 0 0
    103    916.00    261.90    523.00   -279.00  1.0200    100.00 1    916.00    208.00      0.00      0.00      0.00      0.00      0.00      0.00 0 0 0 0   0.0000 0 0 0 0
    120    161.00    300.00    300.00   -258.00  1.0200    100.00 1    845.00    161.00      0.00      0.00      0.00      0.00      0.00      0.00 0 0 0 0   0.0000 0 0 0 0
    128    180.00     61.60    216.00   -115.00  1.0200    100.00 1    378.00    180.00      0.00      0.00      0.00      0.00      0.00      0.00 0 0 0 0   0.0000 0 0 0 0
    130    115.00    115.99    153.00    -81.00  1.0200    100.00 1    267.00    115.00      0.00      0.00      0.00      0.00      0.00      0.00 0 0 0 0   0.0000 0 0 0 0
    141    877.00    294.26    300.00   -515.00  1.0200    100.00 1   1691.00    877.00      0.00      0.00      0.00      0.00      0.00      0.00 0 0 0 0   0.0000 0 0 0 0
    143    155.00    158.08    173.00    -92.00  1.0200    100.00 1    303.00    155.00      0.00      0.00      0.00      0.00      0.00      0.00 0 0 0 0   0.0000 0 0 0 0
    146    436.25    300.00    300.00   -185.00  1.0200    100.00 1    607.00    300.00      0.00      0.00      0.00      0.00      0.00      0.00 0 0 0 0   0.0000 0 0 0 0
    149    186.00     96.34    157.00    -83.00  1.0200    100.00 1    274.00    186.00      0.00      0.00      0.00      0.00      0.00      0.00 0 0 0 0   0.0000 0 0 0 0
    157    288.00    147.24    298.00   -159.00  1.0200    100.00 1    521.00    288.00      0.00      0.00      0.00      0.00      0.00      0.00 0 0 0 0   0.0000 0 0 0 0
    162    473.60    122.95    363.00   -194.00  1.0200    100.00 1    636.00    230.00      0.00      0.00      0.00      0.00      0.00      0.00 0 0 0 0   0.0000 0 0 0 0
    165    782.00    147.61    745.00   -397.00  1.0200    100.00 1   1304.00    782.00      0.00      0.00      0.00      0.00      0.00      0.00 0 0 0 0   0.0000 0 0 0 0
    166    815.05    114.96    474.00   -253.00  1.0200    100.00 1    830.00    277.00      0.00      0.00      0.00      0.00      0.00      0.00 0 0 0 0   0.0000 0 0 0 0
    175    459.20     73.28    358.00   -191.00  1.0200    100.00 1    626.00    209.00      0.00      0.00      0.00      0.00      0.00      0.00 0 0 0 0   0.0000 0 0 0 0
    176     86.00     65.23    153.00    -81.00  1.0200    100.00 1    267.00     86.00      0.00      0.00      0.00      0.00      0.00      0.00 0 0 0 0   0.0000 0 0 0 0
];

%% generator cost data
mpc.gencost = [
2 0 0 4   0.0000    0.001   17.500   450.00
2 0 0 4   0.0000    0.001   24.757  1505.67
2 0 0 4   0.0000    0.002   24.400  3342.77
2 0 0 4   0.0000    0.005   30.562  1114.42
2 0 0 4   0.0000    0.001   25.697  6313.07
2 0 0 4   0.0000    0.002   27.100  1297.89
2 0 0 4   0.0000    0.005   27.249   783.88
2 0 0 4   0.0000    0.002   26.174  1372.76
2 0 0 4   0.0000    0.006   26.053   655.13
2 0 0 4   0.0000    0.002   29.298  3418.85
2 0 0 4   0.0000    0.002   29.135  1458.22
2 0 0 4   0.0000    0.001   23.899  4734.80
2 0 0 4   0.0000    0.004   29.960  3677.05
2 0 0 4   0.0000    0.001   26.605  6691.85
2 0 0 4   0.0000    0.002   26.400  3342.77
2 0 0 4   0.0000    0.004   52.785  7415.02
2 0 0 4   0.0000    0.003   27.114  3844.19
2 0 0 4   0.0000    0.002   25.878  1390.96
2 0 0 4   0.0000    0.003   21.871  2841.36
2 0 0 4   0.0000    0.002   26.558  1284.25
2 0 0 4   0.0000    0.001   24.540  1581.44
2 0 0 4   0.0000    0.002   25.780  3523.95
2 0 0 4   0.0000    0.003   22.330  2325.41
2 0 0 4   0.0000    0.001   25.323  1978.07
2 0 0 4   0.0000    0.005   26.473   732.25
2 0 0 4   0.0000    0.002   26.356  1347.98
2 0 0 4   0.0000    0.008   27.364   550.89
2 0 0 4   0.0000    0.004   31.864  3610.20
2 0 0 4   0.0000    0.001   25.117  2036.75
2 0 0 4   0.0000    0.004   32.314  3777.33
2 0 0 4   0.0000    0.004   26.167   947.57
2 0 0 4   0.0000    0.006   27.791   710.04
2 0 0 4   0.0000    0.003   27.697  4313.07
2 0 0 4   0.0000    0.005   26.616   773.70
2 0 0 4   0.0000    0.002   26.010  1398.04
2 0 0 4   0.0000    0.006   27.475   721.30
2 0 0 4   0.0000    0.006   32.756  1215.71
2 0 0 4   0.0000    0.002   25.916  1460.47
2 0 0 4   0.0000    0.001   26.918  6534.03
2 0 0 4   0.0000    0.001   25.325  1860.51
2 0 0 4   0.0000    0.002   25.962  1438.95
2 0 0 4   0.0000    0.006   27.924   713.43
];

%% branch data
mpc.branch = [
      1       2  0.005978  0.120624   1.98515    414.51    414.51    414.51 1.00000    0.000 1    0.00    0.00    338.00    -46.55   -331.25    -22.55 0 0 0 0
      2      30  0.000000  0.018100   0.00000   1000.00   1000.00   1000.00 1.00000    0.000 1    0.00    0.00   -152.60    -32.57    152.60     36.86 0 0 0 0
      2      39  0.008680  0.060198   0.52937    530.03    530.03    530.03 1.00000    0.000 1    0.00    0.00    303.21    -29.51   -295.44     29.39 0 0 0 0
      2     139  0.003390  0.023178   0.20974    530.03    530.03    530.03 1.00000    0.000 1    0.00    0.00    111.11     12.70   -110.68    -31.17 0 0 0 0
      2     181  0.007607  0.052755   0.46393    530.03    530.03    530.03 1.00000    0.000 1    0.00    0.00   -279.30     17.48    285.20    -24.74 0 0 0 0
      2     201  0.002742  0.018748   0.16965    530.03    530.03    530.03 1.00000    0.000 1    0.00    0.00    243.05     21.87   -241.45    -28.17 0 0 0 0
      3      18  0.003829  0.158129   0.09685    316.20    316.20    316.20 1.00000    0.000 1    0.00    0.00    154.88     41.89   -153.92    -11.69 0 0 0 0
      3     181  0.000638  0.030000   0.00000    400.00    400.00    400.00 1.00000    0.000 1    0.00    0.00    398.48      0.50   -397.51     45.29 0 0 0 0
      4      75  0.016845  0.038117   0.00951    107.32    107.32    107.32 1.00000    0.000 1    0.00    0.00     35.63     11.17    -35.38    -11.50 0 0 0 0
      4     182  0.000889  0.040000   0.00000    300.00    300.00    300.00 1.00000    0.000 1    0.00    0.00   -116.77    -35.35    116.91     41.60 0 0 0 0
      5       8  0.002959  0.039331   0.08406    578.83    578.83    578.83 1.00000    0.000 1    0.00    0.00   -177.71    -60.50    178.75     65.96 0 0 0 0
      5     183  0.001261  0.046667   0.00000    150.00    150.00    150.00 1.00000    0.000 1    0.00    0.00    -74.42    -27.95     74.50     30.96 0 0 0 0
      5     184  0.045023  0.111012   0.17939    178.87    178.87    178.87 1.00000    0.000 1    0.00    0.00    -29.56    -12.00     29.97     -4.90 0 0 0 0
      5     207  0.001124  0.013276   0.03027    541.39    541.39    541.39 1.00000    0.000 1    0.00    0.00    182.35     67.70   -181.91    -65.48 0 0 0 0
      6       7  0.062002  0.145750   0.03365    107.32    107.32    107.32 1.00000    0.000 1    0.00    0.00    -45.12     10.38     46.46    -10.71 0 0 0 0
      6      31  0.000000  0.025000   0.00000   1100.00   1100.00   1100.00 1.00000    0.000 1    0.00    0.00   -241.00    -44.81    241.00     59.62 0 0 0 0
      6      70  0.033638  0.077688   0.01859    107.32    107.32    107.32 1.00000    0.000 1    0.00    0.00    -26.18     18.75     26.53    -19.81 0 0 0 0
      6     184  0.000297  0.014545   0.00000    550.00    550.00    550.00 1.00000    0.000 1    0.00    0.00    176.34     -3.95   -176.24      8.41 0 0 0 0
      6     185  0.000556  0.026667   0.00000    450.00    450.00    450.00 1.00000    0.000 1    0.00    0.00     44.22     -7.92    -44.21      8.45 0 0 0 0
      7     186  0.000336  0.017143   0.00000    700.00    700.00    700.00 1.00000    0.000 1    0.00    0.00    471.97     87.25   -471.23    -49.29 0 0 0 0
      8      54  0.000326  0.005080   0.01216    665.28    665.28    665.28 1.00000    0.000 1    0.00    0.00   -187.67     12.29    187.78    -11.83 0 0 0 0
      8     187  0.000196  0.010000   0.00000    700.00    700.00    700.00 1.00000    0.000 1    0.00    0.00     77.23     16.37    -77.21    -15.77 0 0 0 0
    187       9  0.006838  0.047422   0.41703    530.03    530.03    530.03 1.00000    0.000 1    0.00    0.00      0.03    -43.46      0.00      0.00 0 0 0 0
     10      11  0.000315  0.008557   0.00495    566.01    566.01    566.01 1.00000    0.000 1    0.00    0.00    184.15     30.04   -184.04    -27.69 0 0 0 0
     10      32  0.000000  0.020000   0.00000   1000.00   1000.00   1000.00 1.00000    0.000 1    0.00    0.00   -163.00      2.56    163.00      2.55 0 0 0 0
     10      70  0.005799  0.067267   0.02063    324.83    324.83    324.83 1.00000    0.000 1    0.00    0.00    129.23     21.90   -128.27    -12.86 0 0 0 0
     10     188  0.000073  0.003750   0.00000   3200.00   3200.00   3200.00 1.00000    0.000 1    0.00    0.00   1163.38     48.72  -1162.42      0.15 0 0 0 0
     12      11  0.001279  0.043500   0.00000    100.00    100.00    100.00 1.00000    0.000 1    0.00    0.00    -23.16      0.47     23.17     -0.25 0 0 0 0
     11     173  0.016673  0.124076   0.03486    237.35    237.35    237.35 1.00000    0.000 1    0.00    0.00    103.26     29.79   -101.38    -19.24 0 0 0 0
     11     189  0.001500  0.060000   0.00000    200.00    200.00    200.00 1.00000    0.000 1    0.00    0.00     57.62     -1.85    -57.57      3.78 0 0 0 0
     12      13  0.003529  0.120000   0.00000    100.00    100.00    100.00 1.00000    0.000 1    0.00    0.00     20.42     -1.31    -20.40      1.79 0 0 0 0
    188      13  0.000109  0.001949   0.02003   1045.73   1045.73   1045.73 1.00000    0.000 1    0.00    0.00    349.77     -4.61   -349.64      4.83 0 0 0 0
     13     190  0.000846  0.017908   0.26779   1060.07   1060.07   1060.07 1.00000    0.000 1    0.00    0.00    370.05     -6.62   -368.93      2.60 0 0 0 0
     14      15  0.036111  0.089040   0.14388    178.87    178.87    178.87 1.00000    0.000 1    0.00    0.00     61.27    -17.39    -59.92      6.06 0 0 0 0
     14     177  0.018818  0.067761   0.11459    229.46    229.46    229.46 1.00000    0.000 1    0.00    0.00     96.04    -20.17    -94.31     14.63 0 0 0 0
     14     190  0.000233  0.011667   0.00000    600.00    600.00    600.00 1.00000    0.000 1    0.00    0.00   -275.15      3.54    275.32      5.03 0 0 0 0
     15      61  0.004135  0.027504   0.05200    353.36    353.36    353.36 1.00000    0.000 1    0.00    0.00    116.88    -37.32   -116.27     36.11 0 0 0 0
    184      15  0.003431  0.042042   0.08894    541.39    541.39    541.39 1.00000    0.000 1    0.00    0.00    156.21     -2.84   -155.39      3.95 0 0 0 0
     15     191  0.002059  0.070000   0.00000    100.00    100.00    100.00 1.00000    0.000 1    0.00    0.00    -41.55    -14.46     41.59     15.81 0 0 0 0
     16     149  0.014227  0.046950   0.01231    137.68    137.68    137.68 1.00000    0.000 1    0.00    0.00     22.67    -39.73    -22.38     39.42 0 0 0 0
     16     192  0.001000  0.040000   0.00000    200.00    200.00    200.00 1.00000    0.000 1    0.00    0.00    -71.46      0.60     71.51      1.42 0 0 0 0
     16     193  0.001116  0.048000   0.00000    250.00    250.00    250.00 1.00000    0.000 1    0.00    0.00   -105.90     -5.79    106.02     11.14 0 0 0 0
     17      18  0.056699  0.194499   0.04709    137.68    137.68    137.68 1.00000    0.000 1    0.00    0.00    -53.39     19.89     55.37    -17.55 0 0 0 0
     17     145  0.046728  0.104525   0.02669    107.32    107.32    107.32 1.00000    0.000 1    0.00    0.00     24.99    -16.44    -24.57     14.82 0 0 0 0
     17     194  0.002162  0.080000   0.00000    150.00    150.00    150.00 1.00000    0.000 1    0.00    0.00    -59.05    -32.90     59.15     36.73 0 0 0 0
     19      20  0.000426  0.020000   0.00000    400.00    400.00    400.00 1.00000    0.000 1    0.00    0.00   -110.02    -65.45    110.09     68.82 0 0 0 0
     19      33  0.000700  0.014200   0.00000   1000.00   1000.00   1000.00 1.00000    0.000 1    0.00    0.00   -533.87   -194.11    536.20    241.30 0 0 0 0
     19      96  0.055097  0.129519   0.02990    107.32    107.32    107.32 1.00000    0.000 1    0.00    0.00     -0.30      8.84      0.36    -11.56 0 0 0 0
     19     105  0.000528  0.012761   0.00724    522.03    522.03    522.03 1.00000    0.000 1    0.00    0.00    172.57     83.13   -172.37    -79.00 0 0 0 0
     19     110  0.005086  0.023707   0.00609    173.53    173.53    173.53 1.00000    0.000 1    0.00    0.00     69.08     22.52    -68.80    -21.82 0 0 0 0
     19     118  0.000642  0.013449   0.00755    474.70    474.70    474.70 1.00000    0.000 1    0.00    0.00    307.37     89.60   -306.69    -76.12 0 0 0 0
     19     175  0.056202  0.251624   0.07017    173.53    173.53    173.53 1.00000    0.000 1    0.00    0.00    -62.21      2.02     64.46      1.03 0 0 0 0
     19     195  0.002353  0.080000   0.00000    100.00    100.00    100.00 1.00000    0.000 1    0.00    0.00     46.98     14.85    -46.92    -12.85 0 0 0 0
     19     196  0.003529  0.120000   0.00000    100.00    100.00    100.00 1.00000    0.000 1    0.00    0.00      8.49      4.98     -8.49     -4.86 0 0 0 0
     20      34  0.000900  0.018000   0.00000    600.00    600.00    600.00 1.00000    0.000 1    0.00    0.00   -210.93    -99.89    211.42    109.71 0 0 0 0
     21     129  0.006980  0.035005   0.01005    187.39    187.39    187.39 1.00000    0.000 1    0.00    0.00     67.38     35.54    -66.95    -34.32 0 0 0 0
     21     130  0.007383  0.060698   0.01884    261.01    261.01    261.01 1.00000    0.000 1    0.00    0.00    -31.13    -70.41     31.58     72.24 0 0 0 0
     21     197  0.001441  0.053333   0.00000    150.00    150.00    150.00 1.00000    0.000 1    0.00    0.00    -66.62     -0.42     66.69      2.91 0 0 0 0
     21     198  0.001500  0.060000   0.00000    200.00    200.00    200.00 1.00000    0.000 1    0.00    0.00   -108.16     -3.34    108.35     10.75 0 0 0 0
     22      23  0.013985  0.034482   0.05572    178.87    178.87    178.87 1.00000    0.000 1    0.00    0.00     -8.59    -16.49      8.63     11.04 0 0 0 0
     22      35  0.000000  0.014300   0.00000   1950.00   1950.00   1950.00 1.00000    0.000 1    0.00    0.00   -924.00   -116.08    924.00    241.44 0 0 0 0
     22     199  0.000131  0.006667   0.00000   1050.00   1050.00   1050.00 1.00000    0.000 1    0.00    0.00    805.99     96.61   -805.12    -52.21 0 0 0 0
     23      24  0.043009  0.106048   0.17137    178.87    178.87    178.87 1.00000    0.000 1    0.00    0.00     31.91    -38.82    -31.08     23.37 0 0 0 0
     23      36  0.000500  0.027200   0.00000   1000.00   1000.00   1000.00 1.00000    0.000 1    0.00    0.00   -318.68    -52.06    319.20     80.39 0 0 0 0
     23      90  0.006901  0.020365   0.03648    206.75    206.75    206.75 1.00000    0.000 1    0.00    0.00     83.83     27.70    -83.28    -29.70 0 0 0 0
     23      91  0.012793  0.054395   0.09557    262.53    262.53    262.53 1.00000    0.000 1    0.00    0.00     97.56     21.71    -96.26    -25.48 0 0 0 0
     24     177  0.002078  0.014281   0.02528    353.36    353.36    353.36 1.00000    0.000 1    0.00    0.00    119.13     61.27   -118.77    -61.39 0 0 0 0
     24     200  0.000372  0.017500   0.00000    400.00    400.00    400.00 1.00000    0.000 1    0.00    0.00     82.65     60.04    -82.61    -58.28 0 0 0 0
     25      37  0.000600  0.023200   0.00000   1000.00   1000.00   1000.00 1.00000    0.000 1    0.00    0.00    -99.90    -78.50    100.00     82.23 0 0 0 0
     25     133  0.006133  0.048676   0.09258    395.58    395.58    395.58 1.00000    0.000 1    0.00    0.00     73.13     33.21    -72.72    -38.99 0 0 0 0
     25     168  0.018164  0.045274   0.07160    178.87    178.87    178.87 1.00000    0.000 1    0.00    0.00     65.79     18.19    -64.92    -23.04 0 0 0 0
     25     201  0.001261  0.046667   0.00000    150.00    150.00    150.00 1.00000    0.000 1    0.00    0.00   -112.12      2.51    112.27      3.35 0 0 0 0
     26      42  0.007136  0.049490   0.43522    530.03    530.03    530.03 1.00000    0.000 1    0.00    0.00    103.09    -34.82   -102.35     -5.33 0 0 0 0
     26      43  0.001333  0.009112   0.08245    530.03    530.03    530.03 1.00000    0.000 1    0.00    0.00     -9.16     74.66      9.24    -82.63 0 0 0 0
     26     202  0.010447  0.072454   0.63716    530.03    530.03    530.03 1.00000    0.000 1    0.00    0.00    -63.20     10.49     63.80    -71.17 0 0 0 0
     27     160  0.022175  0.054676   0.08835    178.87    178.87    178.87 1.00000    0.000 1    0.00    0.00     49.60     17.61    -48.93    -24.30 0 0 0 0
     27     202  0.000519  0.023333   0.00000    300.00    300.00    300.00 1.00000    0.000 1    0.00    0.00   -146.28    -50.37    146.41     56.15 0 0 0 0
     28      77  0.066564  0.156472   0.03612    107.32    107.32    107.32 1.00000    0.000 1    0.00    0.00     72.67     -6.95    -69.28     11.29 0 0 0 0
     28      88  0.001156  0.018601   0.00608    418.29    418.29    418.29 1.00000    0.000 1    0.00    0.00    156.64     40.58   -156.35    -36.52 0 0 0 0
     28     203  0.005926  0.160000   0.00000     50.00     50.00     50.00 1.00000    0.000 1    0.00    0.00     34.16      4.32    -34.09     -2.50 0 0 0 0
     28     204  0.003529  0.120000   0.00000    100.00    100.00    100.00 1.00000    0.000 1    0.00    0.00     44.40      1.01    -44.34      1.26 0 0 0 0
     29      38  0.000800  0.015600   0.00000   1200.00   1200.00   1200.00 1.00000    0.000 1    0.00    0.00   -207.66    -22.24    208.00     28.85 0 0 0 0
     29      84  0.009549  0.091679   0.02681    283.00    283.00    283.00 1.00000    0.000 1    0.00    0.00     41.29    -11.03    -41.13      9.86 0 0 0 0
     29     205  0.000209  0.010667   0.00000    750.00    750.00    750.00 1.00000    0.000 1    0.00    0.00     81.53      2.67    -81.52     -1.98 0 0 0 0
     39      43  0.005771  0.040026   0.35199    530.03    530.03    530.03 1.00000    0.000 1    0.00    0.00    210.34    -57.91   -207.72     40.20 0 0 0 0
     40      43  0.003602  0.023140   0.23770    530.03    530.03    530.03 1.00000    0.000 1    0.00    0.00    -85.32    -26.27     85.59      3.74 0 0 0 0
    202      41  0.002711  0.018804   0.16536    530.03    530.03    530.03 1.00000    0.000 1    0.00    0.00    109.44     17.22   -109.10    -31.13 0 0 0 0
     42     167  0.006872  0.049342   0.40438    530.03    530.03    530.03 1.00000    0.000 1    0.00    0.00    -18.07    -26.24     18.10    -15.81 0 0 0 0
     44      55  0.007424  0.027027   0.04470    229.46    229.46    229.46 1.00000    0.000 1    0.00    0.00     42.92     -2.16    -42.79     -1.90 0 0 0 0
     44     206  0.000372  0.017500   0.00000    400.00    400.00    400.00 1.00000    0.000 1    0.00    0.00   -129.18    -28.24    129.25     31.24 0 0 0 0
     45      52  0.000887  0.008362   0.07659    652.53    652.53    652.53 1.00000    0.000 1    0.00    0.00   -190.19    -44.29    190.52     39.43 0 0 0 0
    206      45  0.000420  0.002856   0.02611    530.03    530.03    530.03 1.00000    0.000 1    0.00    0.00     76.67     16.33    -76.65    -18.85 0 0 0 0
     45     212  0.001035  0.009761   0.08940    652.53    652.53    652.53 1.00000    0.000 1    0.00    0.00    145.82     28.98   -145.59    -36.02 0 0 0 0
     46      47  0.016826  0.106284   0.02894    212.01    212.01    212.01 1.00000    0.000 1    0.00    0.00     73.23     22.12    -72.17    -18.01 0 0 0 0
     46     207  0.000370  0.017778   0.00000    450.00    450.00    450.00 1.00000    0.000 1    0.00    0.00   -181.77    -58.55    181.91     65.48 0 0 0 0
     47      63  0.038101  0.089565   0.02068    107.32    107.32    107.32 1.00000    0.000 1    0.00    0.00    -27.04      0.55     27.36     -1.61 0 0 0 0
     48     150  0.003523  0.024436   0.21489    530.03    530.03    530.03 1.00000    0.000 1    0.00    0.00    109.77     16.80   -109.29    -33.57 0 0 0 0
    182      48  0.003417  0.023699   0.20841    530.03    530.03    530.03 1.00000    0.000 1    0.00    0.00    229.21     48.86   -227.27    -55.48 0 0 0 0
     49      65  0.001800  0.037712   0.02118    474.70    474.70    474.70 1.00000    0.000 1    0.00    0.00    179.18     67.70   -178.54    -56.49 0 0 0 0
     49     208  0.001000  0.040000   0.00000    200.00    200.00    200.00 1.00000    0.000 1    0.00    0.00    128.08     13.70   -127.92     -7.32 0 0 0 0
     49     209  0.001500  0.060000   0.00000    200.00    200.00    200.00 1.00000    0.000 1    0.00    0.00    105.94     23.74   -105.77    -16.94 0 0 0 0
     50      65  0.005258  0.037515   0.01148    237.35    237.35    237.35 1.00000    0.000 1    0.00    0.00    -96.31    -23.12     96.85     25.83 0 0 0 0
     50     210  0.003529  0.120000   0.00000    100.00    100.00    100.00 1.00000    0.000 1    0.00    0.00    -16.52    -15.93     16.54     16.59 0 0 0 0
     51      68  0.004060  0.037344   0.01192    283.00    283.00    283.00 1.00000    0.000 1    0.00    0.00    -31.54     18.17     31.59    -18.83 0 0 0 0
     51      72  0.000709  0.007194   0.00234    304.04    304.04    304.04 1.00000    0.000 1    0.00    0.00    -67.98    -50.49     68.03     50.78 0 0 0 0
    183      52  0.002047  0.021637   0.20301    707.51    707.51    707.51 1.00000    0.000 1    0.00    0.00   -231.92    -53.96    233.05     45.09 0 0 0 0
    206      52  0.000643  0.006662   0.06506    707.51    707.51    707.51 1.00000    0.000 1    0.00    0.00   -205.92    -47.57    206.20     43.69 0 0 0 0
     53      57  0.006894  0.059124   0.01683    261.01    261.01    261.01 1.00000    0.000 1    0.00    0.00     98.50     38.64    -97.70    -33.28 0 0 0 0
     53      73  0.003976  0.033438   0.00991    261.01    261.01    261.01 1.00000    0.000 1    0.00    0.00    -33.89    -42.74     34.01     42.79 0 0 0 0
     53     211  0.000369  0.018462   0.00000    650.00    650.00    650.00 1.00000    0.000 1    0.00    0.00   -241.78    -53.03    242.02     64.80 0 0 0 0
     55      61  0.034539  0.120369   0.21762    229.46    229.46    229.46 1.00000    0.000 1    0.00    0.00     80.98    -31.35    -78.61     17.52 0 0 0 0
    208      55  0.006202  0.018912   0.03169    206.75    206.75    206.75 1.00000    0.000 1    0.00    0.00    118.79      1.64   -117.94     -2.29 0 0 0 0
     55     212  0.001261  0.046667   0.00000    150.00    150.00    150.00 1.00000    0.000 1    0.00    0.00    -38.81     -5.73     38.83      6.43 0 0 0 0
    185      56  0.000908  0.009601   0.09009    707.51    707.51    707.51 1.00000    0.000 1    0.00    0.00     12.37   -120.89    -12.25    112.90 0 0 0 0
    191      56  0.000301  0.008151   0.12418   1246.50   1246.50   1246.50 1.00000    0.000 1    0.00    0.00   -612.12    -32.16    613.22     49.00 0 0 0 0
     57      60  0.018675  0.042258   0.01054    107.32    107.32    107.32 1.00000    0.000 1    0.00    0.00     22.44      5.25    -22.33     -5.95 0 0 0 0
     58      62  0.002141  0.014851   0.13060    530.03    530.03    530.03 1.00000    0.000 1    0.00    0.00    117.33     22.30   -117.01    -33.09 0 0 0 0
     58      66  0.001447  0.010038   0.08828    530.03    530.03    530.03 1.00000    0.000 1    0.00    0.00    -77.80    -24.15     77.89     15.95 0 0 0 0
    185      58  0.002185  0.015152   0.13324    530.03    530.03    530.03 1.00000    0.000 1    0.00    0.00    190.69     31.64   -189.88    -39.45 0 0 0 0
    191      59  0.000938  0.006385   0.05837    530.03    530.03    530.03 1.00000    0.000 1    0.00    0.00    255.38     27.37   -254.77    -29.26 0 0 0 0
     59     213  0.000907  0.006172   0.05642    530.03    530.03    530.03 1.00000    0.000 1    0.00    0.00    158.42     -2.51   -158.19     -1.73 0 0 0 0
     60      63  0.017610  0.040671   0.00973    107.32    107.32    107.32 1.00000    0.000 1    0.00    0.00     17.20     -0.95    -17.14      0.22 0 0 0 0
     60      64  0.005655  0.040347   0.01235    237.35    237.35    237.35 1.00000    0.000 1    0.00    0.00   -102.43    -30.49    103.15     34.51 0 0 0 0
     61     143  0.002057  0.016137   0.03143    395.58    395.58    395.58 1.00000    0.000 1    0.00    0.00    109.24    -84.19   -108.86     83.93 0 0 0 0
    192      61  0.004667  0.025655   0.04713    312.32    312.32    312.32 1.00000    0.000 1    0.00    0.00   -116.33      8.17    116.96     -9.49 0 0 0 0
     61     213  0.000519  0.023333   0.00000    300.00    300.00    300.00 1.00000    0.000 1    0.00    0.00   -158.06      4.00    158.19      1.73 0 0 0 0
     63      75  0.005417  0.046454   0.01323    261.01    261.01    261.01 1.00000    0.000 1    0.00    0.00   -103.28    -33.83    103.99     38.80 0 0 0 0
     64     214  0.000336  0.017143   0.00000    700.00    700.00    700.00 1.00000    0.000 1    0.00    0.00   -293.07    -94.59    293.42    112.08 0 0 0 0
     66      71  0.001271  0.008811   0.07749    530.03    530.03    530.03 1.00000    0.000 1    0.00    0.00   -171.94    -52.03    172.34     46.98 0 0 0 0
     67      68  0.002882  0.026509   0.00846    283.00    283.00    283.00 1.00000    0.000 1    0.00    0.00   -106.96    -30.79    107.33     33.40 0 0 0 0
     68     215  0.000336  0.017143   0.00000    700.00    700.00    700.00 1.00000    0.000 1    0.00    0.00   -266.68    -54.41    266.94     67.36 0 0 0 0
    189      69  0.001131  0.007735   0.06999    530.03    530.03    530.03 1.00000    0.000 1    0.00    0.00   -154.09     -8.94    154.35      3.45 0 0 0 0
     69     247  0.002929  0.020317   0.17866    530.03    530.03    530.03 1.00000    0.000 1    0.00    0.00    215.28     74.94   -213.77    -82.69 0 0 0 0
     71      76  0.001422  0.009863   0.08674    530.03    530.03    530.03 1.00000    0.000 1    0.00    0.00   -255.18    -75.45    256.16     73.31 0 0 0 0
     72      73  0.000275  0.004586   0.00284    424.03    424.03    424.03 1.00000    0.000 1    0.00    0.00    120.69     71.99   -120.64    -71.36 0 0 0 0
    182      74  0.000498  0.003455   0.03038    530.03    530.03    530.03 1.00000    0.000 1    0.00    0.00     22.58     47.51    -22.57    -50.39 0 0 0 0
    210      74  0.001292  0.011415   0.10343    623.25    623.25    623.25 1.00000    0.000 1    0.00    0.00    242.18     47.63   -241.39    -50.85 0 0 0 0
     74     216  0.000640  0.004357   0.03984    530.03    530.03    530.03 1.00000    0.000 1    0.00    0.00    168.77     68.52   -168.56    -70.93 0 0 0 0
     75     216  0.000638  0.030000   0.00000    400.00    400.00    400.00 1.00000    0.000 1    0.00    0.00   -168.34    -60.62    168.56     70.93 0 0 0 0
    190      76  0.001435  0.009955   0.08755    530.03    530.03    530.03 1.00000    0.000 1    0.00    0.00    -86.02    -35.49     86.14     27.23 0 0 0 0
     76     238  0.003386  0.047034   0.46520    868.25    868.25    868.25 1.00000    0.000 1    0.00    0.00    414.58     63.50   -408.74    -29.04 0 0 0 0
     77      84  0.006198  0.069744   0.01841    304.04    304.04    304.04 1.00000    0.000 1    0.00    0.00    -60.39    -41.04     60.72     42.95 0 0 0 0
     77      89  0.016077  0.099621   0.02821    212.01    212.01    212.01 1.00000    0.000 1    0.00    0.00     84.36     36.70    -82.95    -30.56 0 0 0 0
     77     217  0.005926  0.160000   0.00000     50.00     50.00     50.00 1.00000    0.000 1    0.00    0.00    -15.89     -8.58     15.91      9.12 0 0 0 0
     77     218  0.003529  0.120000   0.00000    100.00    100.00    100.00 1.00000    0.000 1    0.00    0.00    -24.07    -23.00     24.11     24.36 0 0 0 0
     78      79  0.014099  0.097781   0.85988    511.35    511.35    511.35 1.00000    0.000 1    0.00    0.00     54.91    -68.92    -54.42    -18.67 0 0 0 0
     78     167  0.005724  0.038942   0.35603    530.03    530.03    530.03 1.00000    0.000 1    0.00    0.00    -28.49    -23.99     28.53    -12.87 0 0 0 0
     79      87  0.008106  0.052075   0.53493    530.03    530.03    530.03 1.00000    0.000 1    0.00    0.00    -80.58    -26.74     81.07    -27.99 0 0 0 0
     80      81  0.005975  0.042908   0.35164    530.03    530.03    530.03 1.00000    0.000 1    0.00    0.00     73.02    -22.99    -72.71    -11.33 0 0 0 0
     80      87  0.003558  0.071801   1.18166    696.37    696.37    696.37 1.00000    0.000 1    0.00    0.00    209.46    -89.70   -207.93     -5.24 0 0 0 0
     81      82  0.007764  0.053845   0.47351    530.03    530.03    530.03 1.00000    0.000 1    0.00    0.00    -44.80    -21.01     44.95    -27.11 0 0 0 0
     82      83  0.007662  0.053138   0.46730    530.03    530.03    530.03 1.00000    0.000 1    0.00    0.00     46.40    -30.40    -46.23    -17.10 0 0 0 0
     83     219  0.005009  0.034736   0.30546    530.03    530.03    530.03 1.00000    0.000 1    0.00    0.00    -42.62    -13.35     42.71    -17.86 0 0 0 0
     84     219  0.000224  0.011429   0.00000   1050.00   1050.00   1050.00 1.00000    0.000 1    0.00    0.00     79.54    -12.98    -79.53     13.69 0 0 0 0
     85     154  0.017306  0.084819   0.15179    289.22    289.22    289.22 1.00000    0.000 1    0.00    0.00    -12.77      6.26     12.83    -20.56 0 0 0 0
    217      85  0.004299  0.043533   0.08806    471.67    471.67    471.67 1.00000    0.000 1    0.00    0.00     63.93     28.62    -63.71    -35.07 0 0 0 0
     86      88  0.044131  0.145633   0.03817    137.68    137.68    137.68 1.00000    0.000 1    0.00    0.00    -42.48     -6.18     43.31      5.12 0 0 0 0
     86     169  0.025279  0.129580   0.03558    187.39    187.39    187.39 1.00000    0.000 1    0.00    0.00    -28.05      0.33     28.26     -2.74 0 0 0 0
     86     220  0.000744  0.032000   0.00000    250.00    250.00    250.00 1.00000    0.000 1    0.00    0.00    -42.15    -27.94     42.17     28.79 0 0 0 0
...